opendss/p5r/Lines.dss
New Line.l(r:p5rdt149-p5rhs0_1247) Units=km Length=0.561451 bus1=p5rdt149-p5rhs0_1247x.1.2.3 bus2=p5rdt149-p5rhs0_1247x_b1_1.1.2.3 switch=n enabled=y phases=3 Linecode=3P_OH_AL_ACSR_4/0_Penguin_3

New Line.l(r:p5rdt149lv-p5rlv265) Units=km Length=0.001 bus1=p5rdt149lv.1.2.3 bus2=p5rlv265.1.2.3 switch=n enabled=y phases=3 Linecode=3P_UG_AL_3

New Line.l(r:p5rdt22lv-p5rlv40) Units=km Length=0.004450080000000001 bus1=p5rdt22lv.1.2.3 bus2=p5rlv40.1.2.3 switch=n enabled=y phases=3 Linecode=3P_UG_AL_3

New Line.l(r:p5rdt149-p5rdt22)_s0 Units=km Length=0.829829 bus1=p5rdt149.1.2.3 bus2=p5rdt149-p5rdt22x.1.2.3 switch=n enabled=y phases=3 Linecode=3P_OH_AL_ACSR_4/0_Penguin_3

New Line.l(r:p5rdt149-p5rdt22)_s1 Units=km Length=1.87473 bus1=p5rdt149-p5rdt22x.1.2.3 bus2=p5rdt22.1.2.3 switch=n enabled=y phases=3 Linecode=3P_OH_AL_ACSR_4/0_Penguin_3

New Line.l(r:p5rdt149-p5rhs0_1247)_disconnect Units=km Length=0.001 bus1=p5rdt149-p5rhs0_1247x_b1_1.1.2.3 bus2=p5rdt149-p5rhs0_1247x_b2_1.1.2.3 switch=y enabled=y phases=3 Linecode=3P_OH_AL_ACSR_4/0_Penguin_3

New Line.l(r:p5rdt149-p5rhs0_1247)_cont Units=km Length=5.0620590000000005 bus1=p5rdt149-p5rhs0_1247x_b2_1.1.2.3 bus2=p5rdt149.1.2.3 switch=n enabled=y phases=3 Linecode=3P_OH_AL_ACSR_4/0_Penguin_3

